# generated using pymatgen
data_Ge
_symmetry_space_group_name_H-M   'P 1'
_cell_length_a   4.01272841
_cell_length_b   4.01272786
_cell_length_c   4.01272831
_cell_angle_alpha   59.99998793
_cell_angle_beta   59.99999251
_cell_angle_gamma   59.99999039
_symmetry_Int_Tables_number   1
_chemical_formula_structural   Ge
_chemical_formula_sum   Ge2
_cell_volume   45.68820923
_cell_formula_units_Z   2
loop_
 _symmetry_equiv_pos_site_id
 _symmetry_equiv_pos_as_xyz
  1  'x, y, z'
loop_
 _atom_site_type_symbol
 _atom_site_label
 _atom_site_symmetry_multiplicity
 _atom_site_fract_x
 _atom_site_fract_y
 _atom_site_fract_z
 _atom_site_occupancy
  Ge  Ge0  1  0.87500000  0.87500000  0.87500000  1
  Ge  Ge1  1  0.12500000  0.12500000  0.12500000  1
